/home/amh001/NAA_NEMO/NEMO/OPA_SRC/OBS/obssla_types.h90