/home/amh001/NAA_NEMO/NEMO/OPA_SRC/OBS/obsseaice_io.h90