/home/amh001/NAA_NEMO/NEMO/OPA_SRC/ZDF/zdfddm_substitute.h90