/home/amh001/NAA_NEMO/NEMO/OPA_SRC/OBS/obssst_io.h90