Only in /home/amh001/NAA_NEMO/NEMO/TOP_SRC/: .nfs0000000000150a4f00000008
Common subdirectories: /home/amh001/NAA_NEMO/NEMO/TOP_SRC/.svn and /home/amh001/NEMO36/NEMOGCM/NEMO/TOP_SRC/.svn
Only in /home/amh001/NAA_NEMO/NEMO/TOP_SRC/: AGE
Common subdirectories: /home/amh001/NAA_NEMO/NEMO/TOP_SRC/C14b and /home/amh001/NEMO36/NEMOGCM/NEMO/TOP_SRC/C14b
Common subdirectories: /home/amh001/NAA_NEMO/NEMO/TOP_SRC/CFC and /home/amh001/NEMO36/NEMOGCM/NEMO/TOP_SRC/CFC
Only in /home/amh001/NEMO36/NEMOGCM/NEMO/TOP_SRC: CMOC
Common subdirectories: /home/amh001/NAA_NEMO/NEMO/TOP_SRC/CanOE and /home/amh001/NEMO36/NEMOGCM/NEMO/TOP_SRC/CanOE
Only in /home/amh001/NEMO36/NEMOGCM/NEMO/TOP_SRC: CanOE.tar.gz
Common subdirectories: /home/amh001/NAA_NEMO/NEMO/TOP_SRC/MY_TRC and /home/amh001/NEMO36/NEMOGCM/NEMO/TOP_SRC/MY_TRC
Only in /home/amh001/NEMO36/NEMOGCM/NEMO/TOP_SRC: OUTPUT
Common subdirectories: /home/amh001/NAA_NEMO/NEMO/TOP_SRC/PISCES and /home/amh001/NEMO36/NEMOGCM/NEMO/TOP_SRC/PISCES
Common subdirectories: /home/amh001/NAA_NEMO/NEMO/TOP_SRC/TRP and /home/amh001/NEMO36/NEMOGCM/NEMO/TOP_SRC/TRP
Only in /home/amh001/NEMO36/NEMOGCM/NEMO/TOP_SRC: out
