/home/amh001/NAA_NEMO/NEMO/LIM_SRC_3/*/*/*.[Ffh]90