/home/amh001/NAA_NEMO/NEMO/OPA_SRC/OBS/grt_cir_dis.h90