/home/amh001/NAA_NEMO/NEMO/OPA_SRC/OBS/obs_grd_bruteforce.h90