/home/amh001/NAA_NEMO/NEMO/OPA_SRC/OBS/str_c_to_for.h90