/home/amh001/NAA_NEMO/NEMO/OPA_SRC/OBS/find_obs_proc.h90