/home/amh001/NAA_NEMO/NEMO/OPA_SRC/OBS/greg2jul.h90