/home/amh001/NAA_NEMO/NEMO/OPA_SRC/LDF/ldfdyn_c1d.h90