/home/amh001/NAA_NEMO/NEMO/OPA_SRC/LDF/ldfeiv_substitute.h90