/home/amh001/NAA_NEMO/NEMO/OPA_SRC/LDF/ldftra_c3d.h90