/home/amh001/NAA_NEMO/NEMO/OPA_SRC/OBS/obsinter_z1d.h90