/home/amh001/NAA_NEMO/NEMO/OPA_SRC/OBS/obsinter_h2d.h90