/home/amh001/NAA_NEMO/NEMO/OPA_SRC/OBS/obsprof_io.h90