/home/amh001/NAA_NEMO/NEMO/TOP_SRC/top_substitute.h90