/home/amh001/NAA_NEMO/NEMO/OPA_SRC/vectopt_loop_substitute.h90