Common subdirectories: /home/amh001/work/LATESTNEMO/NEMOGCM/NEMO/TOP_SRC/.svn and /home/amh001/NEMO36/NEMOGCM/NEMO/TOP_SRC/.svn
Only in /home/amh001/work/LATESTNEMO/NEMOGCM/NEMO/TOP_SRC: AGE
Common subdirectories: /home/amh001/work/LATESTNEMO/NEMOGCM/NEMO/TOP_SRC/C14b and /home/amh001/NEMO36/NEMOGCM/NEMO/TOP_SRC/C14b
Common subdirectories: /home/amh001/work/LATESTNEMO/NEMOGCM/NEMO/TOP_SRC/CFC and /home/amh001/NEMO36/NEMOGCM/NEMO/TOP_SRC/CFC
Only in /home/amh001/NEMO36/NEMOGCM/NEMO/TOP_SRC: CMOC
Only in /home/amh001/NEMO36/NEMOGCM/NEMO/TOP_SRC: CanOE
Only in /home/amh001/NEMO36/NEMOGCM/NEMO/TOP_SRC: CanOE.tar.gz
Common subdirectories: /home/amh001/work/LATESTNEMO/NEMOGCM/NEMO/TOP_SRC/MY_TRC and /home/amh001/NEMO36/NEMOGCM/NEMO/TOP_SRC/MY_TRC
Only in /home/amh001/NEMO36/NEMOGCM/NEMO/TOP_SRC: OUTPUT
Common subdirectories: /home/amh001/work/LATESTNEMO/NEMOGCM/NEMO/TOP_SRC/PISCES and /home/amh001/NEMO36/NEMOGCM/NEMO/TOP_SRC/PISCES
Common subdirectories: /home/amh001/work/LATESTNEMO/NEMOGCM/NEMO/TOP_SRC/TRP and /home/amh001/NEMO36/NEMOGCM/NEMO/TOP_SRC/TRP
diff -Bby /home/amh001/work/LATESTNEMO/NEMOGCM/NEMO/TOP_SRC/oce_trc.F90 /home/amh001/NEMO36/NEMOGCM/NEMO/TOP_SRC/oce_trc.F90
MODULE oce_trc							MODULE oce_trc
   !!========================================================	   !!========================================================
   !!                      ***  MODULE  oce_trc  ***		   !!                      ***  MODULE  oce_trc  ***
   !! TOP :   variables shared between ocean and passive trac	   !! TOP :   variables shared between ocean and passive trac
   !!========================================================	   !!========================================================
   !! History :   1.0  !  2004-03  (C. Ethe)  original code	   !! History :   1.0  !  2004-03  (C. Ethe)  original code
   !!             2.0  !  2007-12 (C. Ethe, G. Madec)  rewrit	   !!             2.0  !  2007-12 (C. Ethe, G. Madec)  rewrit
   !!--------------------------------------------------------	   !!--------------------------------------------------------
#if defined key_top						#if defined key_top
   !!--------------------------------------------------------	   !!--------------------------------------------------------
   !!   'key_top'                                            	   !!   'key_top'                                            
   !!--------------------------------------------------------	   !!--------------------------------------------------------

   !* Domain size *						   !* Domain size *
   USE par_oce , ONLY :   jpi      =>   jpi        !: first  	   USE par_oce , ONLY :   jpi      =>   jpi        !: first  
   USE par_oce , ONLY :   jpj      =>   jpj        !: second 	   USE par_oce , ONLY :   jpj      =>   jpj        !: second 
   USE par_oce , ONLY :   jpk      =>   jpk        !: number 	   USE par_oce , ONLY :   jpk      =>   jpk        !: number 
   USE par_oce , ONLY :   jpim1    =>   jpim1      !: jpi - 1	   USE par_oce , ONLY :   jpim1    =>   jpim1      !: jpi - 1
   USE par_oce , ONLY :   jpjm1    =>   jpjm1      !: jpj - 1	   USE par_oce , ONLY :   jpjm1    =>   jpjm1      !: jpj - 1
   USE par_oce , ONLY :   jpkm1    =>   jpkm1      !: jpk - 1	   USE par_oce , ONLY :   jpkm1    =>   jpkm1      !: jpk - 1
   USE par_oce , ONLY :   jpij     =>   jpij       !: jpi x j	   USE par_oce , ONLY :   jpij     =>   jpij       !: jpi x j
   USE par_oce , ONLY :   lk_esopa =>   lk_esopa   !: flag to	   USE par_oce , ONLY :   lk_esopa =>   lk_esopa   !: flag to
   USE par_oce , ONLY :   jp_tem   =>   jp_tem     !: indice 	   USE par_oce , ONLY :   jp_tem   =>   jp_tem     !: indice 
   USE par_oce , ONLY :   jp_sal   =>   jp_sal     !: indice 	   USE par_oce , ONLY :   jp_sal   =>   jp_sal     !: indice 

   !* IO manager *						   !* IO manager *
   USE in_out_manager    					   USE in_out_manager    
 								 
   !* Memory Allocation *					   !* Memory Allocation *
   USE wrk_nemo      						   USE wrk_nemo      
 								 
   !* Timing *							   !* Timing *
   USE timing    						   USE timing    
 								 
   !* MPP library                         			   !* MPP library                         
   USE lib_mpp 							   USE lib_mpp 

   !* Fortran utilities                         		   !* Fortran utilities                         
   USE lib_fortran						   USE lib_fortran

   !* Lateral boundary conditions                         	   !* Lateral boundary conditions                         
   USE lbclnk							   USE lbclnk

   !* physical constants *					   !* physical constants *
   USE phycst            					   USE phycst            

   !* 1D configuration						   !* 1D configuration
   USE c1d                                         		   USE c1d                                         

   !* model domain *						   !* model domain *
   USE dom_oce 							   USE dom_oce 

   USE domvvl, ONLY : un_td, vn_td          !: thickness diff	   USE domvvl, ONLY : un_td, vn_td          !: thickness diff
   USE domvvl, ONLY : ln_vvl_ztilde         !: ztilde vertica	   USE domvvl, ONLY : ln_vvl_ztilde         !: ztilde vertica
   USE domvvl, ONLY : ln_vvl_layer          !: level  vertica	   USE domvvl, ONLY : ln_vvl_layer          !: level  vertica

   !* ocean fields: here now and after fields *			   !* ocean fields: here now and after fields *
   USE oce , ONLY :   ua      =>    ua      !: i-horizontal v	   USE oce , ONLY :   ua      =>    ua      !: i-horizontal v
   USE oce , ONLY :   va      =>    va      !: j-horizontal v	   USE oce , ONLY :   va      =>    va      !: j-horizontal v
   USE oce , ONLY :   un      =>    un      !: i-horizontal v	   USE oce , ONLY :   un      =>    un      !: i-horizontal v
   USE oce , ONLY :   vn      =>    vn      !: j-horizontal v	   USE oce , ONLY :   vn      =>    vn      !: j-horizontal v
   USE oce , ONLY :   wn      =>    wn      !: vertical veloc	   USE oce , ONLY :   wn      =>    wn      !: vertical veloc
   USE oce , ONLY :   tsn     =>    tsn     !: 4D array conta	   USE oce , ONLY :   tsn     =>    tsn     !: 4D array conta
   USE oce , ONLY :   tsb     =>    tsb     !: 4D array conta	   USE oce , ONLY :   tsb     =>    tsb     !: 4D array conta
   USE oce , ONLY :   tsa     =>    tsa     !: 4D array conta	   USE oce , ONLY :   tsa     =>    tsa     !: 4D array conta
   USE oce , ONLY :   rhop    =>    rhop    !: potential volu	   USE oce , ONLY :   rhop    =>    rhop    !: potential volu
   USE oce , ONLY :   rhd     =>    rhd     !: in situ densit	   USE oce , ONLY :   rhd     =>    rhd     !: in situ densit
#if defined key_offline						#if defined key_offline
   USE oce , ONLY :   rab_n   =>    rab_n   !: local thermal/	   USE oce , ONLY :   rab_n   =>    rab_n   !: local thermal/
#endif								#endif
   USE oce , ONLY :   hdivn   =>    hdivn   !: horizontal div	   USE oce , ONLY :   hdivn   =>    hdivn   !: horizontal div
   USE oce , ONLY :   rotn    =>    rotn    !: relative vorti	   USE oce , ONLY :   rotn    =>    rotn    !: relative vorti
   USE oce , ONLY :   hdivb   =>    hdivb   !: horizontal div	   USE oce , ONLY :   hdivb   =>    hdivb   !: horizontal div
   USE oce , ONLY :   rotb    =>    rotb    !: relative vorti	   USE oce , ONLY :   rotb    =>    rotb    !: relative vorti
   USE oce , ONLY :   sshn    =>    sshn    !: sea surface he	   USE oce , ONLY :   sshn    =>    sshn    !: sea surface he
   USE oce , ONLY :   sshb    =>    sshb    !: sea surface he	   USE oce , ONLY :   sshb    =>    sshb    !: sea surface he
   USE oce , ONLY :   ssha    =>    ssha    !: sea surface he	   USE oce , ONLY :   ssha    =>    ssha    !: sea surface he
   USE oce , ONLY :   l_traldf_rot => l_traldf_rot  !: rotate	   USE oce , ONLY :   l_traldf_rot => l_traldf_rot  !: rotate

   !* surface fluxes *						   !* surface fluxes *
   USE sbc_oce , ONLY :   utau       =>    utau       !: i-su	   USE sbc_oce , ONLY :   utau       =>    utau       !: i-su
   USE sbc_oce , ONLY :   vtau       =>    vtau       !: j-su	   USE sbc_oce , ONLY :   vtau       =>    vtau       !: j-su
   USE sbc_oce , ONLY :   wndm       =>    wndm       !: 10m 	   USE sbc_oce , ONLY :   wndm       =>    wndm       !: 10m 
   USE sbc_oce , ONLY :   qsr        =>    qsr        !: pene	   USE sbc_oce , ONLY :   qsr        =>    qsr        !: pene
   USE sbc_oce , ONLY :   emp        =>    emp        !: fres	   USE sbc_oce , ONLY :   emp        =>    emp        !: fres
   USE sbc_oce , ONLY :   emp_b      =>    emp_b      !: fres	   USE sbc_oce , ONLY :   emp_b      =>    emp_b      !: fres
   USE sbc_oce , ONLY :   fmmflx     =>    fmmflx     !: fres	   USE sbc_oce , ONLY :   fmmflx     =>    fmmflx     !: fres
   USE sbc_oce , ONLY :   rnf        =>    rnf        !: rive	   USE sbc_oce , ONLY :   rnf        =>    rnf        !: rive
   USE sbc_oce , ONLY :   ln_dm2dc   =>    ln_dm2dc   !: Diur	   USE sbc_oce , ONLY :   ln_dm2dc   =>    ln_dm2dc   !: Diur
   USE sbc_oce , ONLY :   ncpl_qsr_freq   =>   ncpl_qsr_freq 	   USE sbc_oce , ONLY :   ncpl_qsr_freq   =>   ncpl_qsr_freq 
   USE sbc_oce , ONLY :   ln_rnf     =>    ln_rnf     !: runo	   USE sbc_oce , ONLY :   ln_rnf     =>    ln_rnf     !: runo
   USE sbc_oce , ONLY :   fr_i       =>    fr_i       !: ice 	   USE sbc_oce , ONLY :   fr_i       =>    fr_i       !: ice 
   USE sbc_oce , ONLY :   nn_ice_embd => nn_ice_embd  !: flag	   USE sbc_oce , ONLY :   nn_ice_embd => nn_ice_embd  !: flag
   USE traqsr  , ONLY :   rn_abs     =>    rn_abs     !: frac	   USE traqsr  , ONLY :   rn_abs     =>    rn_abs     !: frac
   USE traqsr  , ONLY :   rn_si0     =>    rn_si0     !: very	   USE traqsr  , ONLY :   rn_si0     =>    rn_si0     !: very
   USE traqsr  , ONLY :   ln_qsr_bio =>    ln_qsr_bio !: flag	   USE traqsr  , ONLY :   ln_qsr_bio =>    ln_qsr_bio !: flag
   USE sbcrnf  , ONLY :   rnfmsk     =>    rnfmsk     !: mixe	   USE sbcrnf  , ONLY :   rnfmsk     =>    rnfmsk     !: mixe
   USE sbcrnf  , ONLY :   rnfmsk_z   =>    rnfmsk_z   !: mixe	   USE sbcrnf  , ONLY :   rnfmsk_z   =>    rnfmsk_z   !: mixe
   USE sbcrnf  , ONLY :   h_rnf      =>    h_rnf      !: rive	   USE sbcrnf  , ONLY :   h_rnf      =>    h_rnf      !: rive
   USE sbcrnf  , ONLY :   nk_rnf     =>    nk_rnf     !: dept	   USE sbcrnf  , ONLY :   nk_rnf     =>    nk_rnf     !: dept

   USE trc_oce							   USE trc_oce

   !* lateral diffusivity (tracers) *				   !* lateral diffusivity (tracers) *
   USE ldftra_oce , ONLY :  rldf     =>   rldf        !: mult	   USE ldftra_oce , ONLY :  rldf     =>   rldf        !: mult
   USE ldftra_oce , ONLY :  rn_aht_0 =>   rn_aht_0    !: hori	   USE ldftra_oce , ONLY :  rn_aht_0 =>   rn_aht_0    !: hori
   USE ldftra_oce , ONLY :  aht0     =>   aht0        !: hori	   USE ldftra_oce , ONLY :  aht0     =>   aht0        !: hori
   USE ldftra_oce , ONLY :  ahtb0    =>   ahtb0       !: back	   USE ldftra_oce , ONLY :  ahtb0    =>   ahtb0       !: back
   USE ldftra_oce , ONLY :  ahtu     =>   ahtu        !: late	   USE ldftra_oce , ONLY :  ahtu     =>   ahtu        !: late
   USE ldftra_oce , ONLY :  ahtv     =>   ahtv        !: late	   USE ldftra_oce , ONLY :  ahtv     =>   ahtv        !: late
   USE ldftra_oce , ONLY :  ahtw     =>   ahtw        !: late	   USE ldftra_oce , ONLY :  ahtw     =>   ahtw        !: late
   USE ldftra_oce , ONLY :  ahtt     =>   ahtt        !: late	   USE ldftra_oce , ONLY :  ahtt     =>   ahtt        !: late
   USE ldftra_oce , ONLY :  aeiv0    =>   aeiv0       !: eddy	   USE ldftra_oce , ONLY :  aeiv0    =>   aeiv0       !: eddy
   USE ldftra_oce , ONLY :  aeiu     =>   aeiu        !: eddy	   USE ldftra_oce , ONLY :  aeiu     =>   aeiu        !: eddy
   USE ldftra_oce , ONLY :  aeiv     =>   aeiv        !: eddy	   USE ldftra_oce , ONLY :  aeiv     =>   aeiv        !: eddy
   USE ldftra_oce , ONLY :  aeiw     =>   aeiw        !: eddy	   USE ldftra_oce , ONLY :  aeiw     =>   aeiw        !: eddy
   USE ldftra_oce , ONLY :  lk_traldf_eiv  =>  lk_traldf_eiv 	   USE ldftra_oce , ONLY :  lk_traldf_eiv  =>  lk_traldf_eiv 
   USE ldftra_oce , ONLY :  r_fact_lap     =>  r_fact_lap     <

   !* vertical diffusion *					   !* vertical diffusion *
   USE zdf_oce , ONLY :   avt        =>   avt         !: vert	   USE zdf_oce , ONLY :   avt        =>   avt         !: vert
# if defined key_zdfddm						# if defined key_zdfddm
   USE zdfddm  , ONLY :   avs        =>   avs         !: sali	   USE zdfddm  , ONLY :   avs        =>   avs         !: sali
# endif								# endif

   !* mixing & mixed layer depth *				   !* mixing & mixed layer depth *
   USE zdfmxl , ONLY :   nmln        =>   nmln        !: numb	   USE zdfmxl , ONLY :   nmln        =>   nmln        !: numb
   USE zdfmxl , ONLY :   hmld        =>   hmld        !: mixi	   USE zdfmxl , ONLY :   hmld        =>   hmld        !: mixi
   USE zdfmxl , ONLY :   hmlp        =>   hmlp        !: mixe	   USE zdfmxl , ONLY :   hmlp        =>   hmlp        !: mixe
   USE zdfmxl , ONLY :   hmlpt       =>   hmlpt       !: mixe	   USE zdfmxl , ONLY :   hmlpt       =>   hmlpt       !: mixe

   !* direction of lateral diffusion *				   !* direction of lateral diffusion *
   USE ldfslp , ONLY :   lk_ldfslp  =>  lk_ldfslp     !: slop	   USE ldfslp , ONLY :   lk_ldfslp  =>  lk_ldfslp     !: slop
# if   defined key_ldfslp					# if   defined key_ldfslp
   USE ldfslp , ONLY :   uslp       =>   uslp         !: i-di	   USE ldfslp , ONLY :   uslp       =>   uslp         !: i-di
   USE ldfslp , ONLY :   vslp       =>   vslp         !: j-di	   USE ldfslp , ONLY :   vslp       =>   vslp         !: j-di
   USE ldfslp , ONLY :   wslpi      =>   wslpi        !: i-di	   USE ldfslp , ONLY :   wslpi      =>   wslpi        !: i-di
   USE ldfslp , ONLY :   wslpj      =>   wslpj        !: j-di	   USE ldfslp , ONLY :   wslpj      =>   wslpj        !: j-di
# endif								# endif

   USE diaar5 , ONLY :   lk_diaar5  =>   lk_diaar5		   USE diaar5 , ONLY :   lk_diaar5  =>   lk_diaar5
#else								#else
   !!--------------------------------------------------------	   !!--------------------------------------------------------
   !!  Empty module :                                     No 	   !!  Empty module :                                     No 
   !!--------------------------------------------------------	   !!--------------------------------------------------------
#endif								#endif

   !!--------------------------------------------------------	   !!--------------------------------------------------------
   !! NEMO/TOP 3.3 , NEMO Consortium (2010)			   !! NEMO/TOP 3.3 , NEMO Consortium (2010)
   !! $Id: oce_trc.F90 6312 2016-02-15 11:43:52Z cetlod $     |	   !! $Id: oce_trc.F90 5385 2015-06-09 13:50:42Z cetlod $
   !! Software governed by the CeCILL licence (NEMOGCM/NEMO_C	   !! Software governed by the CeCILL licence (NEMOGCM/NEMO_C
   !!========================================================	   !!========================================================
END MODULE oce_trc						END MODULE oce_trc
Only in /home/amh001/NEMO36/NEMOGCM/NEMO/TOP_SRC: out
diff -Bby /home/amh001/work/LATESTNEMO/NEMOGCM/NEMO/TOP_SRC/par_trc.F90 /home/amh001/NEMO36/NEMOGCM/NEMO/TOP_SRC/par_trc.F90
MODULE par_trc							MODULE par_trc
   !!========================================================	   !!========================================================
   !!                        ***  par_trc  ***			   !!                        ***  par_trc  ***
   !! TOP :   set the passive tracers parameters		   !! TOP :   set the passive tracers parameters
   !!========================================================	   !!========================================================
   !! History :    -   !  1996-01  (M. Levy)  original code	   !! History :    -   !  1996-01  (M. Levy)  original code
   !!              -   !  2000-04  (O. Aumont, M.A. Foujols) 	   !!              -   !  2000-04  (O. Aumont, M.A. Foujols) 
   !!             1.0  !  2004-03  (C. Ethe) Free form and mo	   !!             1.0  !  2004-03  (C. Ethe) Free form and mo
   !!             2.0  !  2007-12  (C. Ethe, G. Madec)  revis	   !!             2.0  !  2007-12  (C. Ethe, G. Madec)  revis
							      >	   !!                  !  2017-09  (A.Holdsworth)  added CMOC
   !!--------------------------------------------------------	   !!--------------------------------------------------------
   USE par_kind          ! kind parameters			   USE par_kind          ! kind parameters
   !								   !
   USE par_pisces    ! PISCES  model				   USE par_pisces    ! PISCES  model
							      >	   USE par_canoe    ! PISCES  model
							      >	   USE par_cmoc    ! CMOC  model
   USE par_c14b      ! C14 bomb tracer				   USE par_c14b      ! C14 bomb tracer
   USE par_cfc       ! CFC 11 and 12 tracers			   USE par_cfc       ! CFC 11 and 12 tracers
   USE par_age       ! AGE  tracer			      <
   USE par_my_trc    ! user defined passive tracers		   USE par_my_trc    ! user defined passive tracers

   IMPLICIT NONE						   IMPLICIT NONE

   ! Passive tracers : Maximum number of tracers. Needed to d	   ! Passive tracers : Maximum number of tracers. Needed to d
   ! --------------- 						   ! --------------- 
   INTEGER, PUBLIC,  PARAMETER ::   jpmaxtrc = 100		   INTEGER, PUBLIC,  PARAMETER ::   jpmaxtrc = 100

   ! Passive tracers : Total size				   ! Passive tracers : Total size
   ! ---------------               ! total number of passive 	   ! ---------------               ! total number of passive 
   INTEGER, PUBLIC,  PARAMETER ::   jptra    =  jp_pisces     |	   INTEGER, PUBLIC,  PARAMETER ::   jptra    =  jp_canoe + jp
   INTEGER, PUBLIC,  PARAMETER ::   jpdia2d  =  jp_pisces_2d  |	   INTEGER, PUBLIC,  PARAMETER ::   jpdia2d  =  jp_canoe_2d +
   INTEGER, PUBLIC,  PARAMETER ::   jpdia3d  =  jp_pisces_3d  |	   INTEGER, PUBLIC,  PARAMETER ::   jpdia3d  =  jp_canoe_3d +
   !                     ! total number of sms diagnostic arr	   !                     ! total number of sms diagnostic arr
   INTEGER, PUBLIC,  PARAMETER ::   jpdiabio =  jp_pisces_trd |	   INTEGER, PUBLIC,  PARAMETER ::   jpdiabio =  jp_canoe_trd 
   								   
   !  1D configuration ("key_c1d")				   !  1D configuration ("key_c1d")
   ! -----------------						   ! -----------------
# if defined key_c1d						# if defined key_c1d
   LOGICAL, PUBLIC, PARAMETER ::   lk_trc_c1d   = .TRUE.   !:	   LOGICAL, PUBLIC, PARAMETER ::   lk_trc_c1d   = .TRUE.   !:
# else   							# else   
   LOGICAL, PUBLIC, PARAMETER ::   lk_trc_c1d   = .FALSE.  !:	   LOGICAL, PUBLIC, PARAMETER ::   lk_trc_c1d   = .FALSE.  !:
# endif								# endif

   REAL(wp), PUBLIC  :: rtrn  = 0.5 * EPSILON( 1.e0 )    !: t	   REAL(wp), PUBLIC  :: rtrn  = 0.5 * EPSILON( 1.e0 )    !: t

   !!--------------------------------------------------------	   !!--------------------------------------------------------
   !! NEMO/TOP 3.3 , NEMO Consortium (2010)			   !! NEMO/TOP 3.3 , NEMO Consortium (2010)
   !! $Id: par_trc.F90 7494 2016-12-14 09:02:43Z timgraham $  |	   !! $Id: par_trc.F90 4529 2014-03-15 11:00:04Z cetlod $ 
   !! Software governed by the CeCILL licence (NEMOGCM/NEMO_C	   !! Software governed by the CeCILL licence (NEMOGCM/NEMO_C
   !!========================================================	   !!========================================================
END MODULE par_trc						END MODULE par_trc
diff -Bby /home/amh001/work/LATESTNEMO/NEMOGCM/NEMO/TOP_SRC/prtctl_trc.F90 /home/amh001/NEMO36/NEMOGCM/NEMO/TOP_SRC/prtctl_trc.F90
MODULE prtctl_trc						MODULE prtctl_trc
   !!========================================================	   !!========================================================
   !!                         ***  MODULE prtctl_trc  ***	   !!                         ***  MODULE prtctl_trc  ***
   !! TOP :   print all SUM trends for each processor domain	   !! TOP :   print all SUM trends for each processor domain
   !!========================================================	   !!========================================================
   !! History :    -   !  2005-07  (C. Talandier) original co	   !! History :    -   !  2005-07  (C. Talandier) original co
   !!             1.0  !  2005-10  (C. Ethe     ) adapted to 	   !!             1.0  !  2005-10  (C. Ethe     ) adapted to 
   !!--------------------------------------------------------	   !!--------------------------------------------------------
#if defined key_top						#if defined key_top
   !!--------------------------------------------------------	   !!--------------------------------------------------------
   !!   'key_top'                                            	   !!   'key_top'                                            
   !!--------------------------------------------------------	   !!--------------------------------------------------------
   !!   prt_ctl_trc      :   control print in mpp for passive	   !!   prt_ctl_trc      :   control print in mpp for passive
   !!   prt_ctl_trc_info :   ???				   !!   prt_ctl_trc_info :   ???
   !!   prt_ctl_trc_init :   ???				   !!   prt_ctl_trc_init :   ???
   !!--------------------------------------------------------	   !!--------------------------------------------------------
   USE par_trc          ! TOP parameters			   USE par_trc          ! TOP parameters
   USE oce_trc          ! ocean space and time domain variabl	   USE oce_trc          ! ocean space and time domain variabl
   USE prtctl           ! print control for OPA			   USE prtctl           ! print control for OPA

   IMPLICIT NONE						   IMPLICIT NONE
   PRIVATE							   PRIVATE

   INTEGER , DIMENSION(:), ALLOCATABLE ::   numid_trc        	   INTEGER , DIMENSION(:), ALLOCATABLE ::   numid_trc        
   INTEGER , DIMENSION(:), ALLOCATABLE ::   nlditl , nldjtl  	   INTEGER , DIMENSION(:), ALLOCATABLE ::   nlditl , nldjtl  
   INTEGER , DIMENSION(:), ALLOCATABLE ::   nleitl , nlejtl  	   INTEGER , DIMENSION(:), ALLOCATABLE ::   nleitl , nlejtl  
   INTEGER , DIMENSION(:), ALLOCATABLE ::   nimpptl, njmpptl 	   INTEGER , DIMENSION(:), ALLOCATABLE ::   nimpptl, njmpptl 
   INTEGER , DIMENSION(:), ALLOCATABLE ::   nlcitl , nlcjtl  	   INTEGER , DIMENSION(:), ALLOCATABLE ::   nlcitl , nlcjtl  
   INTEGER , DIMENSION(:), ALLOCATABLE ::   ibonitl, ibonjtl	   INTEGER , DIMENSION(:), ALLOCATABLE ::   ibonitl, ibonjtl

   REAL(wp), DIMENSION(:,:), ALLOCATABLE ::   tra_ctl        	   REAL(wp), DIMENSION(:,:), ALLOCATABLE ::   tra_ctl        

   PUBLIC prt_ctl_trc         ! called by all subroutines	   PUBLIC prt_ctl_trc         ! called by all subroutines
   PUBLIC prt_ctl_trc_info    !					   PUBLIC prt_ctl_trc_info    !
   PUBLIC prt_ctl_trc_init    ! called by opa.F90		   PUBLIC prt_ctl_trc_init    ! called by opa.F90

CONTAINS							CONTAINS

   SUBROUTINE prt_ctl_trc( tab4d, mask, clinfo, ovlap, kdim, 	   SUBROUTINE prt_ctl_trc( tab4d, mask, clinfo, ovlap, kdim, 
      !!-----------------------------------------------------	      !!-----------------------------------------------------
      !!                     ***  ROUTINE prt_ctl  ***		      !!                     ***  ROUTINE prt_ctl  ***
      !!							      !!
      !! ** Purpose : - print sum control 3D arrays over the 	      !! ** Purpose : - print sum control 3D arrays over the 
      !!                in mono and mpp case. This way can be	      !!                in mono and mpp case. This way can be
      !!                debugging a new parametrization in mo	      !!                debugging a new parametrization in mo
      !!							      !!
      !! ** Method  : 2 possibilities exist when setting the 	      !! ** Method  : 2 possibilities exist when setting the 
      !!                .true. in the ocean namelist:		      !!                .true. in the ocean namelist:
      !!              - to debug a MPI run .vs. a mono-proces	      !!              - to debug a MPI run .vs. a mono-proces
      !!                the control print will be done over e	      !!                the control print will be done over e
      !!                The nictl[se] and njctl[se] parameter	      !!                The nictl[se] and njctl[se] parameter
      !!                be set to zero and [ij]splt to the co	      !!                be set to zero and [ij]splt to the co
      !!                domain in MPI along respectively i-, 	      !!                domain in MPI along respectively i-, 
      !!              - to debug a mono-processor run over th	      !!              - to debug a mono-processor run over th
      !!                in the first case the nictl[se] and n	      !!                in the first case the nictl[se] and n
      !!                to zero else to the indices of the ar	      !!                to zero else to the indices of the ar
      !!                isplt and jsplt must be set to 1.	      !!                isplt and jsplt must be set to 1.
      !!              - All arguments of the above calling se	      !!              - All arguments of the above calling se
      !!                name must be explicitly typed if used	      !!                name must be explicitly typed if used
      !!                array tmask(:,:,:) must be passed thr	      !!                array tmask(:,:,:) must be passed thr
      !!                it must looks like: CALL prt_ctl( mas	      !!                it must looks like: CALL prt_ctl( mas
      !!-----------------------------------------------------	      !!-----------------------------------------------------
      REAL(wp)         , DIMENSION(:,:,:,:), INTENT(in), OPTI	      REAL(wp)         , DIMENSION(:,:,:,:), INTENT(in), OPTI
      REAL(wp)         , DIMENSION(:,:,:)  , INTENT(in), OPTI	      REAL(wp)         , DIMENSION(:,:,:)  , INTENT(in), OPTI
      CHARACTER (len=*), DIMENSION(:)      , INTENT(in), OPTI	      CHARACTER (len=*), DIMENSION(:)      , INTENT(in), OPTI
      CHARACTER (len=*)                    , INTENT(in), OPTI	      CHARACTER (len=*)                    , INTENT(in), OPTI
      INTEGER                              , INTENT(in), OPTI	      INTEGER                              , INTENT(in), OPTI
      INTEGER                              , INTENT(in), OPTI	      INTEGER                              , INTENT(in), OPTI
      !!							      !!
      INTEGER  ::   overlap, jn, js, sind, eind, kdir, j_id	      INTEGER  ::   overlap, jn, js, sind, eind, kdir, j_id
      REAL(wp) ::   zsum, zvctl					      REAL(wp) ::   zsum, zvctl
      CHARACTER (len=20), DIMENSION(jptra) ::   cl		      CHARACTER (len=20), DIMENSION(jptra) ::   cl
      CHARACTER (len=10) ::   cl2				      CHARACTER (len=10) ::   cl2
      REAL(wp), POINTER, DIMENSION(:,:,:)  :: zmask, ztab3d 	      REAL(wp), POINTER, DIMENSION(:,:,:)  :: zmask, ztab3d 
      !!-----------------------------------------------------	      !!-----------------------------------------------------

      CALL wrk_alloc( jpi, jpj, jpk, zmask, ztab3d )		      CALL wrk_alloc( jpi, jpj, jpk, zmask, ztab3d )
      !                                      ! Arrays, scalar	      !                                      ! Arrays, scalar
      overlap       = 0						      overlap       = 0
      kdir          = jpkm1					      kdir          = jpkm1
      zsum          = 0.e0					      zsum          = 0.e0
      zvctl         = 0.e0					      zvctl         = 0.e0
      cl(:)         = ''					      cl(:)         = ''
      cl2           = ''					      cl2           = ''
      ztab3d(:,:,:) = 0.e0					      ztab3d(:,:,:) = 0.e0
      zmask (:,:,:) = 1.e0					      zmask (:,:,:) = 1.e0

      !                                      ! Control of opt	      !                                      ! Control of opt
      IF( PRESENT(ovlap)   )   overlap       = ovlap		      IF( PRESENT(ovlap)   )   overlap       = ovlap
      IF( PRESENT(kdim)    )   kdir          = kdim		      IF( PRESENT(kdim)    )   kdir          = kdim
      IF( PRESENT(clinfo ) )   cl(:)         = clinfo(:)	      IF( PRESENT(clinfo ) )   cl(:)         = clinfo(:)
      IF( PRESENT(clinfo2) )   cl2           = clinfo2		      IF( PRESENT(clinfo2) )   cl2           = clinfo2
      IF( PRESENT(mask)    )   zmask (:,:,:) = mask(:,:,:)	      IF( PRESENT(mask)    )   zmask (:,:,:) = mask(:,:,:)

      IF( lk_mpp )   THEN      ! processor number		      IF( lk_mpp )   THEN      ! processor number
         sind = narea						         sind = narea
         eind = narea						         eind = narea
      ELSE                     ! processors total number	      ELSE                     ! processors total number
         sind = 1						         sind = 1
         eind = ijsplt						         eind = ijsplt
      ENDIF							      ENDIF

      ! Loop over each sub-domain, i.e. the total number of p	      ! Loop over each sub-domain, i.e. the total number of p
      DO js = sind, eind					      DO js = sind, eind
         !							         !
         ! Set logical unit					         ! Set logical unit
         j_id = numid_trc( js - narea + 1 )			         j_id = numid_trc( js - narea + 1 )
         ! Set indices for the SUM control			         ! Set indices for the SUM control
         IF( .NOT. lsp_area ) THEN				         IF( .NOT. lsp_area ) THEN
            IF (lk_mpp )   THEN					            IF (lk_mpp )   THEN
               nictls = MAX( 1, nlditl(js) - overlap )		               nictls = MAX( 1, nlditl(js) - overlap )
               nictle = nleitl(js) + overlap * MIN( 1, nlcitl	               nictle = nleitl(js) + overlap * MIN( 1, nlcitl
               njctls = MAX( 1, nldjtl(js) - overlap )		               njctls = MAX( 1, nldjtl(js) - overlap )
               njctle = nlejtl(js) + overlap * MIN( 1, nlcjtl	               njctle = nlejtl(js) + overlap * MIN( 1, nlcjtl
               ! Do not take into account the bound of the do	               ! Do not take into account the bound of the do
               IF( ibonitl(js) == -1 .OR. ibonitl(js) == 2 ) 	               IF( ibonitl(js) == -1 .OR. ibonitl(js) == 2 ) 