&nam_rebuild
filebase='mesh_mask'
ndomain=8
/
