/home/amh001/NAA_NEMO/NEMO/OPA_SRC/DIA/diawri_dimg.h90