/home/amh001/NAA_NEMO/NEMO/LIM_SRC_2/limwri_dimg_2.h90