Only in /home/amh001/NAA_NEMO/NEMO/TOP_SRC/: .nfs0000000000150a4f00000008
Common subdirectories: /home/amh001/NAA_NEMO/NEMO/TOP_SRC/.svn and /home/amh001/work/LATESTNEMO/NEMOGCM/NEMO/TOP_SRC/.svn
Common subdirectories: /home/amh001/NAA_NEMO/NEMO/TOP_SRC/AGE and /home/amh001/work/LATESTNEMO/NEMOGCM/NEMO/TOP_SRC/AGE
Common subdirectories: /home/amh001/NAA_NEMO/NEMO/TOP_SRC/C14b and /home/amh001/work/LATESTNEMO/NEMOGCM/NEMO/TOP_SRC/C14b
Common subdirectories: /home/amh001/NAA_NEMO/NEMO/TOP_SRC/CFC and /home/amh001/work/LATESTNEMO/NEMOGCM/NEMO/TOP_SRC/CFC
Only in /home/amh001/NAA_NEMO/NEMO/TOP_SRC/: CanOE
Common subdirectories: /home/amh001/NAA_NEMO/NEMO/TOP_SRC/MY_TRC and /home/amh001/work/LATESTNEMO/NEMOGCM/NEMO/TOP_SRC/MY_TRC
Only in /home/amh001/NAA_NEMO/NEMO/TOP_SRC/: OUT
Common subdirectories: /home/amh001/NAA_NEMO/NEMO/TOP_SRC/PISCES and /home/amh001/work/LATESTNEMO/NEMOGCM/NEMO/TOP_SRC/PISCES
Common subdirectories: /home/amh001/NAA_NEMO/NEMO/TOP_SRC/TRP and /home/amh001/work/LATESTNEMO/NEMOGCM/NEMO/TOP_SRC/TRP
diff /home/amh001/NAA_NEMO/NEMO/TOP_SRC/oce_trc.F90 /home/amh001/work/LATESTNEMO/NEMOGCM/NEMO/TOP_SRC/oce_trc.F90
117a118
>    USE ldftra_oce , ONLY :  r_fact_lap     =>  r_fact_lap        !: enhanced zonal diffusivity coefficient
149c150
<    !! $Id: oce_trc.F90 5385 2015-06-09 13:50:42Z cetlod $
---
>    !! $Id: oce_trc.F90 6312 2016-02-15 11:43:52Z cetlod $
diff /home/amh001/NAA_NEMO/NEMO/TOP_SRC/par_trc.F90 /home/amh001/work/LATESTNEMO/NEMOGCM/NEMO/TOP_SRC/par_trc.F90
10d9
<    !!                  !  2017-09  (A.Holdsworth)  added CMOC
15d13
<    USE par_canoe    ! PISCES  model
17a16
>    USE par_age       ! AGE  tracer
28,30c27,29
<    INTEGER, PUBLIC,  PARAMETER ::   jptra    =  jp_canoe +  jp_pisces     + jp_cfc     + jp_c14b    + jp_my_trc
<    INTEGER, PUBLIC,  PARAMETER ::   jpdia2d  =  jp_canoe_2d + jp_pisces_2d  + jp_cfc_2d  + jp_c14b_2d + jp_my_trc_2d
<    INTEGER, PUBLIC,  PARAMETER ::   jpdia3d  =  jp_canoe_3d +  jp_pisces_3d  + jp_cfc_3d  + jp_c14b_3d + jp_my_trc_3d
---
>    INTEGER, PUBLIC,  PARAMETER ::   jptra    =  jp_pisces     + jp_cfc     + jp_c14b    + jp_age    + jp_my_trc
>    INTEGER, PUBLIC,  PARAMETER ::   jpdia2d  =  jp_pisces_2d  + jp_cfc_2d  + jp_c14b_2d + jp_age_2d + jp_my_trc_2d
>    INTEGER, PUBLIC,  PARAMETER ::   jpdia3d  =  jp_pisces_3d  + jp_cfc_3d  + jp_c14b_3d + jp_age_3d + jp_my_trc_3d
32c31
<    INTEGER, PUBLIC,  PARAMETER ::   jpdiabio =  jp_canoe_trd +jp_pisces_trd + jp_cfc_trd + jp_c14b_trd + jp_my_trc_trd
---
>    INTEGER, PUBLIC,  PARAMETER ::   jpdiabio =  jp_pisces_trd + jp_cfc_trd + jp_c14b_trd + jp_age_trd + jp_my_trc_trd
46c45
<    !! $Id: par_trc.F90 4529 2014-03-15 11:00:04Z cetlod $ 
---
>    !! $Id: par_trc.F90 7494 2016-12-14 09:02:43Z timgraham $
diff /home/amh001/NAA_NEMO/NEMO/TOP_SRC/trc.F90 /home/amh001/work/LATESTNEMO/NEMOGCM/NEMO/TOP_SRC/trc.F90
16,21c16
<  !! From Elise 20170316 ---written by xiaofan Luo
<  #if defined key_bdy
<    USE bdy_oce, only: nb_bdy, OBC_DATA
<  #endif  
<  !! ----------------------written by xiaofan Luo
< 
---
>    
98,104d92
< !! From Elise 20170316------------------written by xiaofanLUO
<      !#if defined  key_bdy
<        LOGICAL              :: llobc   !: read in a file or not
<        LOGICAL              :: llsbc   !: read in a file or not
<        LOGICAL              :: llcbc   !: read in a file or not
<  !#endi
< 
106,107d93
<  
< !!------------------------------------xiaofanLuo
207,215c193
< !! From ELise ------written by xiaofan Luo
< #if defined key_bdy
<     CHARACTER(len=20), PUBLIC, ALLOCATABLE,  SAVE,  DIMENSION(:)   ::  cn_trc_dflt          ! Default OBC condition for all tracers
<     CHARACTER(len=20), PUBLIC, ALLOCATABLE,  SAVE,  DIMENSION(:)   ::  cn_trc               ! Choice of boundary condition for tracers
<     INTEGER,           PUBLIC, ALLOCATABLE,  SAVE,  DIMENSION(:)   ::  nn_trcdmp_bdy        !: =T Tracer damping
<     ! External data structure of BDY for TOP. Available elements: cn_obc, ll_trc, trcnow, dmp
<     TYPE(OBC_DATA),    PUBLIC, ALLOCATABLE, DIMENSION(:,:), TARGET ::  trcdta_bdy           !: bdy external data (local process)
< #endif
< !! ----------------written by xiaofan Luo
---
> 
237,244c215,216
<          &      ln_trc_ini(jptra)     , ln_trc_wri(jptra)     , qsr_mean(jpi,jpj)     ,       & 
<          &      ln_trc_sbc(jptra)     , ln_trc_cbc(jptra)     , ln_trc_obc(jptra)     ,       &
< #if defined key_bdy
<          &      cn_trc_dflt(nb_bdy)   , cn_trc(nb_bdy)        , nn_trcdmp_bdy(nb_bdy) ,       &
<          &      trcdta_bdy(jptra,nb_bdy)                                              ,       &
< #endif
<          &      STAT = trc_alloc  )
<          ! from elise 20170316 --------xiaofanLuo (l235-l241)
---
>          &      ln_trc_ini(jptra)     , ln_trc_wri(jptra)     , qsr_mean(jpi,jpj)     ,  STAT = trc_alloc  )  
> 
diff /home/amh001/NAA_NEMO/NEMO/TOP_SRC/trcbc.F90 /home/amh001/work/LATESTNEMO/NEMOGCM/NEMO/TOP_SRC/trcbc.F90
19,21c19
< #if defined key_bdy
<    USE bdy_oce, only: nb_bdy , idx_bdy, ln_coords_file, rn_time_dmp, rn_time_dmp_out
< #endif
---
> 
34,36c32,34
<    !INTEGER  , SAVE, PUBLIC                             :: ntra_obc     ! MAX( 1, nb_trcxxx ) to avoid compilation error with bounds checking
<    !INTEGER  , SAVE, PUBLIC                             :: ntra_sbc     ! MAX( 1, nb_trcxxx ) to avoid compilation error with bounds checking
<    !INTEGER  , SAVE, PUBLIC                             :: ntra_cbc     ! MAX( 1, nb_trcxxx ) to avoid compilation error with bounds checking
---
>    INTEGER  , SAVE, PUBLIC                             :: ntra_obc     ! MAX( 1, nb_trcxxx ) to avoid compilation error with bounds checking
>    INTEGER  , SAVE, PUBLIC                             :: ntra_sbc     ! MAX( 1, nb_trcxxx ) to avoid compilation error with bounds checking
>    INTEGER  , SAVE, PUBLIC                             :: ntra_cbc     ! MAX( 1, nb_trcxxx ) to avoid compilation error with bounds checking
38c36
<    TYPE(FLD), SAVE, PUBLIC, ALLOCATABLE, DIMENSION(:), TARGET  :: sf_trcobc   ! structure of data input OBC (file informations, fields read)
---
>    TYPE(FLD), SAVE, PUBLIC, ALLOCATABLE, DIMENSION(:)  :: sf_trcobc   ! structure of data input OBC (file informations, fields read)
43,44c41
<    TYPE(MAP_POINTER), ALLOCATABLE, DIMENSION(:) :: nbmap_ptr   ! array of pointers to nbmap
<    
---
> 
49c46
<    !! $Id: trcbc.F90 5215 2015-04-15 16:11:56Z nicolasmartin $ 
---
>    !! $Id: trcbc.F90 8511 2017-09-07 15:53:42Z lovato $ 
65c62
<       INTEGER            :: jl, jn, ib, ibd, ii, ij, ik    ! dummy loop indices
---
>       INTEGER            :: jl, jn                         ! dummy loop indices
68d64
<       INTEGER            :: nblen, igrd                    ! support arrays for BDY
71c67
<       CHARACTER(len=100) :: cn_dir_sbc, cn_dir_cbc, cn_dir_obc
---
>       CHARACTER(len=100) :: cn_dir
80,84c76
<       NAMELIST/namtrc_bc/ cn_dir_sbc, cn_dir_cbc, sn_trcsbc, rn_trsfac, sn_trccbc, rn_trcfac
< #if defined key_bdy
<       NAMELIST/namtrc_bdy/ cn_trc_dflt, cn_trc, nn_trcdmp_bdy
<       NAMELIST/nambdy_bc/ cn_dir_obc, sn_trcobc, rn_trofac
< #endif
---
>       NAMELIST/namtrc_bc/ cn_dir, sn_trcobc, rn_trofac, sn_trcsbc, rn_trsfac, sn_trccbc, rn_trcfac 
88,95d79
<       IF( lwp ) THEN
<          WRITE(numout,*) ' '
<          WRITE(numout,*) 'trc_bc_init : Tracers Boundary Conditions (BC)'
<          WRITE(numout,*) '~~~~~~~~~~~ '
<          
<          !WRITE(numout,*) "In trc_bc_init at A: nstop=", nstop
<       ENDIF
<       !
107c91
<      ENDIF
---
>       ENDIF
125,150c109,134
<       !DO jn = 1, ntrc
<       !   IF( ln_trc_obc(jn) ) THEN
<       !       nb_trcobc       = nb_trcobc + 1 
<       !       n_trc_indobc(jn) = nb_trcobc 
<       !   ENDIF
<       !   IF( ln_trc_sbc(jn) ) THEN
<       !       nb_trcsbc       = nb_trcsbc + 1
<       !       n_trc_indsbc(jn) = nb_trcsbc
<       !   ENDIF
<       !   IF( ln_trc_cbc(jn) ) THEN
<       !       nb_trccbc       = nb_trccbc + 1
<       !       n_trc_indcbc(jn) = nb_trccbc
<       !   ENDIF
<       !ENDDO
<       !ntra_obc = MAX( 1, nb_trcobc )   ! To avoid compilation error with bounds checking
<       !IF( lwp ) WRITE(numout,*) ' '
<       !IF( lwp ) WRITE(numout,*) ' Number of passive tracers to be initialized with open boundary data :', nb_trcobc
<       !IF( lwp ) WRITE(numout,*) ' '
<       !ntra_sbc = MAX( 1, nb_trcsbc )   ! To avoid compilation error with bounds checking
<       !IF( lwp ) WRITE(numout,*) ' '
<       !IF( lwp ) WRITE(numout,*) ' Number of passive tracers to be initialized with surface boundary data :', nb_trcsbc
<       !IF( lwp ) WRITE(numout,*) ' '
<       !ntra_cbc = MAX( 1, nb_trccbc )   ! To avoid compilation error with bounds checking
<       !IF( lwp ) WRITE(numout,*) ' '
<       !IF( lwp ) WRITE(numout,*) ' Number of passive tracers to be initialized with coastal boundary data :', nb_trccbc
<       !IF( lwp ) WRITE(numout,*) ' '
---
>       DO jn = 1, ntrc
>          IF( ln_trc_obc(jn) ) THEN
>              nb_trcobc       = nb_trcobc + 1 
>              n_trc_indobc(jn) = nb_trcobc 
>          ENDIF
>          IF( ln_trc_sbc(jn) ) THEN
>              nb_trcsbc       = nb_trcsbc + 1
>              n_trc_indsbc(jn) = nb_trcsbc
>          ENDIF
>          IF( ln_trc_cbc(jn) ) THEN
>              nb_trccbc       = nb_trccbc + 1
>              n_trc_indcbc(jn) = nb_trccbc
>          ENDIF
>       ENDDO
>       ntra_obc = MAX( 1, nb_trcobc )   ! To avoid compilation error with bounds checking
>       IF( lwp ) WRITE(numout,*) ' '
>       IF( lwp ) WRITE(numout,*) ' Number of passive tracers to be initialized with open boundary data :', nb_trcobc
>       IF( lwp ) WRITE(numout,*) ' '
>       ntra_sbc = MAX( 1, nb_trcsbc )   ! To avoid compilation error with bounds checking
>       IF( lwp ) WRITE(numout,*) ' '
>       IF( lwp ) WRITE(numout,*) ' Number of passive tracers to be initialized with surface boundary data :', nb_trcsbc
>       IF( lwp ) WRITE(numout,*) ' '
>       ntra_cbc = MAX( 1, nb_trccbc )   ! To avoid compilation error with bounds checking
>       IF( lwp ) WRITE(numout,*) ' '
>       IF( lwp ) WRITE(numout,*) ' Number of passive tracers to be initialized with coastal boundary data :', nb_trccbc
>       IF( lwp ) WRITE(numout,*) ' '
152d135
<       ! Read Boundary Conditions Namelists
162,214c145
< #if defined key_bdy
<       REWIND( numnat_ref )              ! Namelist namtrc_bc in reference namelist : Passive tracer data structure
<       READ  ( numnat_ref, namtrc_bdy, IOSTAT = ios, ERR = 903)
< 903   IF( ios /= 0 ) CALL ctl_nam ( ios , 'namtrc_bdy in reference namelist', lwp )
< 
<       REWIND( numnat_cfg )              ! Namelist namtrc_bc in configuration namelist : Passive tracer data structure
<       READ  ( numnat_cfg, namtrc_bdy, IOSTAT = ios, ERR = 904 )
< 904   IF( ios /= 0 ) CALL ctl_nam ( ios , 'namtrc_bdy in configuration namelist', lwp )
<       IF(lwm) WRITE ( numont, namtrc_bdy )
<       ! setup up preliminary informations for BDY structure
<       REWIND( numnat_ref )
<       REWIND( numnat_cfg )
<       DO ib = 1, nb_bdy
<          DO jn = 1, ntrc
<             ! Set type of obc in BDY data structure (around here we may plug user override of obc type from nml)
<            ! WRITE(numout,*) "ln_trc_obc(jn)=", ln_trc_obc(jn)
<            ! WRITE(numout,*) "jn=", jn, " ib=", ib, "cn_trc(ib)=", cn_trc(ib)
<            ! WRITE(numout,*) "jn=", jn, " ib=", ib, "cn_trc_dflt(ib)=", cn_trc_dflt(ib)
<             IF ( ln_trc_obc(jn)) THEN
<                trcdta_bdy(jn,ib)%cn_obc = TRIM( cn_trc(ib) )
<             ELSE
<                trcdta_bdy(jn,ib)%cn_obc = TRIM( cn_trc_dflt(ib) )
<             ENDIF
<             ! set damping use in BDY data structure
<             trcdta_bdy(jn,ib)%dmp = .false.
<             IF(nn_trcdmp_bdy(ib) .EQ. 1 .AND. ln_trc_obc(jn) ) trcdta_bdy(jn,ib)%dmp = .true.
<             IF(nn_trcdmp_bdy(ib) .EQ. 2 ) trcdta_bdy(jn,ib)%dmp = .true.
<             IF(trcdta_bdy(jn,ib)%cn_obc == 'frs' .AND. nn_trcdmp_bdy(ib) .NE. 0 )  &
<                 & CALL ctl_stop( 'Use FRS OR relaxation' )
<             IF (nn_trcdmp_bdy(ib) .LT. 0 .OR. nn_trcdmp_bdy(ib) .GT. 2)            THEN
<                  WRITE(numout,*) "nn_trcdmp_bdy=", nn_trcdmp_bdy(ib), " ib=", ib  
<                  CALL ctl_stop( 'Not a valid option for nn_trcdmp_bdy. Allowed: 0,1,2.' )
<             ENDIF
<          ENDDO
<       ENDDO
< 
< #else
<       ! Force all tracers OBC to false if bdy not used
<       ln_trc_obc = .false.
< #endif
<       ! compose BC data indexes
<       DO jn = 1, ntrc
<          IF( ln_trc_obc(jn) ) THEN
<              nb_trcobc       = nb_trcobc + 1  ; n_trc_indobc(jn) = nb_trcobc
<          ENDIF
<          IF( ln_trc_sbc(jn) ) THEN
<              nb_trcsbc       = nb_trcsbc + 1  ; n_trc_indsbc(jn) = nb_trcsbc
<          ENDIF
<          IF( ln_trc_cbc(jn) ) THEN
<              nb_trccbc       = nb_trccbc + 1  ; n_trc_indcbc(jn) = nb_trccbc
<          ENDIF
<       ENDDO
<        !print some information for each 
---
>       ! print some information for each 
240,292c171,172
<             ! Print summmary of Boundary Conditions
<       IF( lwp ) THEN
<          WRITE(numout,*) ' '
<          WRITE(numout,'(a,i3)') '   Total tracers to be initialized with SURFACE BCs data:', nb_trcsbc
<          IF ( nb_trcsbc > 0 ) THEN
<             WRITE(numout,*) '   #trc        NAME        Boundary     Mult.Fact. '
<             DO jn = 1, ntrc
<                IF ( ln_trc_sbc(jn) ) WRITE(numout,9001) jn, TRIM( sn_trcsbc(jn)%clvar ), 'SBC', rn_trsfac(jn)
<             ENDDO
<          ENDIF
<          WRITE(numout,'(2a)') '   SURFACE BC data repository : ', TRIM(cn_dir_sbc)
< 
<          WRITE(numout,*) ' '
<          WRITE(numout,'(a,i3)') '   Total tracers to be initialized with COASTAL BCs data:', nb_trccbc
<          IF ( nb_trccbc > 0 ) THEN
<             WRITE(numout,*) '   #trc        NAME        Boundary     Mult.Fact. '
<             DO jn = 1, ntrc
<                IF ( ln_trc_cbc(jn) ) WRITE(numout, 9001) jn, TRIM( sn_trccbc(jn)%clvar ), 'CBC', rn_trcfac(jn)
<             ENDDO
<          ENDIF
<          WRITE(numout,'(2a)') '   COASTAL BC data repository : ', TRIM(cn_dir_cbc)
< 
<          WRITE(numout,*) ' '
<          WRITE(numout,'(a,i3)') '   Total tracers to be initialized with OPEN BCs data:', nb_trcobc
< #if defined key_bdy
<          IF ( nb_trcobc > 0 ) THEN
<             WRITE(numout,*) '   #trc        NAME        Boundary     Mult.Fact.   OBC Settings'
<             DO jn = 1, ntrc
<                IF ( ln_trc_obc(jn) )  WRITE(numout, 9001) jn, TRIM( sn_trcobc(jn)%clvar ), 'OBC', rn_trofac(jn), (trcdta_bdy(jn,ib)%cn_obc,ib=1,nb_bdy)
<                IF ( .NOT. ln_trc_obc(jn) )  WRITE(numout, 9002) jn, 'Set data to IC and use default condition', (trcdta_bdy(jn,ib)%cn_obc,ib=1,nb_bdy)
<             ENDDO
<             WRITE(numout,*) ' '
<             DO ib = 1, nb_bdy
<                 IF (nn_trcdmp_bdy(ib) .EQ. 0) WRITE(numout,9003) '   Boundary ',ib,' -> NO damping of tracers'
<                 IF (nn_trcdmp_bdy(ib) .EQ. 1) WRITE(numout,9003) '   Boundary ',ib,' -> damping ONLY for tracers with external data provided'
<                 IF (nn_trcdmp_bdy(ib) .EQ. 2) WRITE(numout,9003) '   Boundary ',ib,' -> damping of ALL tracers'
<                 IF (nn_trcdmp_bdy(ib) .GT. 0) THEN
<                    WRITE(numout,9003) '     USE damping parameters from nambdy for boundary ', ib,' : '
<                    WRITE(numout,'(a,f10.2,a)') '     - Inflow damping time scale  : ',rn_time_dmp(ib),' days'
<                    WRITE(numout,'(a,f10.2,a)') '     - Outflow damping time scale : ',rn_time_dmp_out(ib),' days'
<                 ENDIF
<             ENDDO
<          ENDIF
< #endif
<          WRITE(numout,'(2a)') '   OPEN BC data repository : ', TRIM(cn_dir_obc)
<       ENDIF
< 9001  FORMAT(2x,i5, 3x, a15, 3x, a5, 6x, e11.3, 4x, 10a13)
< 9002  FORMAT(2x,i5, 3x, a41, 3x, 10a13)
< 9003  FORMAT(a, i5, a)
< #if defined key_bdy
<       ! OPEN Lateral boundary conditions
<       IF( nb_trcobc > 0 ) THEN 
<          ALLOCATE ( sf_trcobc(nb_trcobc*nb_bdy), rf_trofac(nb_trcobc*nb_bdy), nbmap_ptr(nb_trcobc*nb_bdy), STAT=ierr1 )
---
>       IF( nb_trcobc > 0 ) THEN       !  allocate only if the number of tracer to initialise is greater than zero
>          ALLOCATE( sf_trcobc(nb_trcobc), rf_trofac(nb_trcobc), STAT=ierr1 )
294c174
<             CALL ctl_stop( 'trc_bc_init: unable to allocate sf_trcobc structure' )   ;   RETURN
---
>             CALL ctl_stop( 'trc_bc_init: unable to allocate  sf_trcobc structure' )   ;   RETURN
296,336c176,185
< 
<          igrd = 1                       ! Everything is at T-points here
< 
<          DO ib = 1, nb_bdy
<             READ  ( numnat_ref, nambdy_bc, IOSTAT = ios, ERR = 905)
< 905         IF( ios /= 0 ) CALL ctl_nam ( ios , 'nambdy_bc in reference namelist', lwp )
< 
<             READ  ( numnat_cfg, nambdy_bc, IOSTAT = ios, ERR = 906 )
< 906         IF( ios /= 0 ) CALL ctl_nam ( ios , 'nambdy_bc in configuration namelist', lwp )
<             IF(lwm) WRITE ( numont, nambdy_bc )
< 
<             nblen = idx_bdy(ib)%nblen(igrd)
<             !WRITE(numout,*) 'nblen=', nblen
<             
<             DO jn = 1, ntrc
<                IF ( ln_trc_obc(jn)) THEN
<                ! Initialise from external data
<                   jl = n_trc_indobc(jn)
<                   slf_i(jl)    = sn_trcobc(jn)
<                   rf_trofac(jl+(ib-1)*nb_trcobc) = rn_trofac(jn)
<                                                ALLOCATE( sf_trcobc(jl+(ib-1)*nb_trcobc)%fnow(nblen,1,jpk)   , STAT=ierr2 )
<                   IF( sn_trcobc(jn)%ln_tint )  ALLOCATE( sf_trcobc(jl+(ib-1)*nb_trcobc)%fdta(nblen,1,jpk,2) , STAT=ierr3 )
<                   IF( ierr2 + ierr3 > 0 ) THEN
<                     CALL ctl_stop( 'trc_bc_init : unable to allocate passive tracer OBC data arrays' )   ;   RETURN
<                   ENDIF
<                   trcdta_bdy(jn,ib)%trc => sf_trcobc(jl+(ib-1)*nb_trcobc)%fnow(:,1,:)
<                   trcdta_bdy(jn,ib)%rn_fac = rf_trofac(jl+(ib-1)*nb_trcobc)
<                   ! create OBC mapping array
<                   nbmap_ptr(jl+(ib-1)*nb_trcobc)%ptr => idx_bdy(ib)%nbmap(:,igrd)
<                   nbmap_ptr(jl+(ib-1)*nb_trcobc)%ll_unstruc = ln_coords_file(igrd)
<                ELSE
<                ! Initialise obc arrays from initial conditions
<                   ALLOCATE ( trcdta_bdy(jn,ib)%trc(nblen,jpk) )
<                   DO ibd = 1, nblen
<                      DO ik = 1, jpkm1
<                         ii = idx_bdy(ib)%nbi(ibd,igrd)
<                         ij = idx_bdy(ib)%nbj(ibd,igrd)
<                         trcdta_bdy(jn,ib)%trc(ibd,ik) = trn(ii,ij,ik,jn) * tmask(ii,ij,ik)
<                      END DO
<                   END DO
<                   trcdta_bdy(jn,ib)%rn_fac = 1._wp
---
>          !
>          DO jn = 1, ntrc
>             IF( ln_trc_obc(jn) ) THEN      ! update passive tracers arrays with input data read from file
>                jl = n_trc_indobc(jn)
>                slf_i(jl)    = sn_trcobc(jn)
>                rf_trofac(jl) = rn_trofac(jn)
>                                             ALLOCATE( sf_trcobc(jl)%fnow(jpi,jpj,jpk)   , STAT=ierr2 )
>                IF( sn_trcobc(jn)%ln_tint )  ALLOCATE( sf_trcobc(jl)%fdta(jpi,jpj,jpk,2) , STAT=ierr3 )
>                IF( ierr2 + ierr3 > 0 ) THEN
>                  CALL ctl_stop( 'trc_bc_init : unable to allocate passive tracer OBC data arrays' )   ;   RETURN
338,340c187,188
<             ENDDO
<             CALL fld_fill( sf_trcobc((1+(ib-1)*nb_trcobc):(nb_trcobc+(ib-1)*nb_trcobc)), slf_i, cn_dir_obc, &
<             &             'trc_bc_init', 'Passive tracer OBC data', 'namtrc_bc' )
---
>             ENDIF
>             !   
342,368c190,193
<           
< 
<          ENDIF
< #endif
<       !IF( nb_trcobc > 0 ) THEN       !  allocate only if the number of tracer to initialise is greater than zero
<       !   ALLOCATE( sf_trcobc(nb_trcobc), rf_trofac(nb_trcobc), STAT=ierr1 )
<       !   IF( ierr1 > 0 ) THEN
<       !      CALL ctl_stop( 'trc_bc_init: unable to allocate  sf_trcobc structure' )   ;   RETURN
<       !   ENDIF
<       !   !
<       !   DO jn = 1, ntrc
<       !      IF( ln_trc_obc(jn) ) THEN      ! update passive tracers arrays with input data read from file
<       !         jl = n_trc_indobc(jn)
<       !         slf_i(jl)    = sn_trcobc(jn)
<       !         rf_trofac(jl) = rn_trofac(jn)
<       !                                      ALLOCATE( sf_trcobc(jl)%fnow(jpi,jpj,jpk)   , STAT=ierr2 )
<       !         IF( sn_trcobc(jn)%ln_tint )  ALLOCATE( sf_trcobc(jl)%fdta(jpi,jpj,jpk,2) , STAT=ierr3 )
<       !         IF( ierr2 + ierr3 > 0 ) THEN
<       !           CALL ctl_stop( 'trc_bc_init : unable to allocate passive tracer OBC data arrays' )   ;   RETURN
<       !         ENDIF
<       !      ENDIF
<       !      !   
<       !   ENDDO
<       !   !                         ! fill sf_trcdta with slf_i and control print
<       !   CALL fld_fill( sf_trcobc, slf_i, cn_dir, 'trc_bc_init', 'Passive tracer OBC data', 'namtrc_bc' )
<       !   !
<       !ENDIF
---
>          !                         ! fill sf_trcdta with slf_i and control print
>          CALL fld_fill( sf_trcobc, slf_i, cn_dir, 'trc_bc_init', 'Passive tracer OBC data', 'namtrc_bc' )
>          !
>       ENDIF
391c216
<          CALL fld_fill( sf_trcsbc, slf_i, cn_dir_sbc, 'trc_bc_init', 'Passive tracer SBC data', 'namtrc_bc' )
---
>          CALL fld_fill( sf_trcsbc, slf_i, cn_dir, 'trc_bc_init', 'Passive tracer SBC data', 'namtrc_bc' )
394,395c219,220
<       
<       !COASTAL Boundary conditions
---
>       !
>       ! COSTAL Boundary conditions
416c241
<          CALL fld_fill( sf_trccbc, slf_i, cn_dir_cbc, 'trc_bc_init', 'Passive tracer CBC data', 'namtrc_bc' )
---
>          CALL fld_fill( sf_trccbc, slf_i, cn_dir, 'trc_bc_init', 'Passive tracer CBC data', 'namtrc_bc' )
421,422d245
<       
<       !WRITE(numout,*) "In trc_bc_init at B: nstop=", nstop
428c251
<    SUBROUTINE trc_bc_read(kt, jit)
---
>    SUBROUTINE trc_bc_read(kt)
443,444c266
<       INTEGER, INTENT( in ), OPTIONAL ::   jit   ! subcycle time-step index (for timesplitting option)
<       INTEGER            ::  ib
---
> 
454,491d275
<       !WRITE(numout,*) "In trc_bc_read at A1: nstop=", nstop
<       IF ( PRESENT(jit) ) THEN 
<       
< #if defined key_bdy
<          ! OPEN boundary conditions (use time_offset=+1 as they are applied at the end of the step)
<          IF( nb_trcobc > 0 ) THEN
<            if (lwp) write(numout,'(a,i5,a,i10)') '   reading OBC data for ', nb_trcobc ,' variable(s) at step ', kt
<            DO ib = 1, nb_bdy
<              CALL fld_read(kt=kt, kn_fsbc=1, sd=sf_trcobc((1+(ib-1)*nb_trcobc):(nb_trcobc+(ib-1)*nb_trcobc)), &
<              &             map=nbmap_ptr((1+(ib-1)*nb_trcobc):(nb_trcobc+(ib-1)*nb_trcobc)), kit=jit, kt_offset=+1)
<            END DO
<          ENDIF
< #endif
< 
<          ! SURFACE boundary conditions
<          IF( nb_trcsbc > 0 ) THEN
<            if (lwp) write(numout,'(a,i5,a,i10)') '   reading SBC data for ', nb_trcsbc ,' variable(s) at step ', kt
<            CALL fld_read(kt=kt, kn_fsbc=1, sd=sf_trcsbc, kit=jit)
<          ENDIF
< 
<          ! COASTAL boundary conditions
<          IF( nb_trccbc > 0 ) THEN
<            if (lwp) write(numout,'(a,i5,a,i10)') '   reading CBC data for ', nb_trccbc ,' variable(s) at step ', kt
<            CALL fld_read(kt=kt, kn_fsbc=1, sd=sf_trccbc, kit=jit)
<          ENDIF
< 
<       ELSE
<       
< #if defined key_bdy
<          ! OPEN boundary conditions (use time_offset=+1 as they are applied at the end of the step)
<          IF( nb_trcobc > 0 ) THEN
<            if (lwp) write(numout,'(a,i5,a,i10)') '   reading OBC data for ', nb_trcobc ,' variable(s) at step ', kt
<            DO ib = 1, nb_bdy
<              CALL fld_read(kt=kt, kn_fsbc=1, sd=sf_trcobc((1+(ib-1)*nb_trcobc):(nb_trcobc+(ib-1)*nb_trcobc)), &
<              &             map=nbmap_ptr((1+(ib-1)*nb_trcobc):(nb_trcobc+(ib-1)*nb_trcobc)), kt_offset=+1)
<            END DO
<          ENDIF
< #endif
493,497c277,282
<          ! SURFACE boundary conditions
<          IF( nb_trcsbc > 0 ) THEN
<            if (lwp) write(numout,'(a,i5,a,i10)') '   reading SBC data for ', nb_trcsbc ,' variable(s) at step ', kt
<            CALL fld_read(kt=kt, kn_fsbc=1, sd=sf_trcsbc)
<          ENDIF
---
>       ! OPEN boundary conditions: DOES NOT WORK. Waiting for stable BDY
>       IF( nb_trcobc > 0 ) THEN
>         if (lwp) write(numout,'(a,i5,a,i12)') '   reading OBC data for ', nb_trcobc ,' variables at step ', kt
>         CALL fld_read(kt,1,sf_trcobc)
>         ! vertical interpolation on s-grid and partial step to be added
>       ENDIF
499,503c284,288
<          ! COASTAL boundary conditions
<          IF( nb_trccbc > 0 ) THEN
<            if (lwp) write(numout,'(a,i5,a,i10)') '   reading CBC data for ', nb_trccbc ,' variable(s) at step ', kt
<            CALL fld_read(kt=kt, kn_fsbc=1, sd=sf_trccbc)
<          ENDIF
---
>       ! SURFACE boundary conditions       
>       IF( nb_trcsbc > 0 ) THEN
>         if (lwp) write(numout,'(a,i5,a,i12)') '   reading SBC data for ', nb_trcsbc ,' variables at step ', kt
>         CALL fld_read(kt,1,sf_trcsbc)
>       ENDIF
505c290,294
<       ENDIF 
---
>       ! COASTAL boundary conditions       
>       IF( nb_trccbc > 0 ) THEN
>         if (lwp) write(numout,'(a,i5,a,i12)') '   reading CBC data for ', nb_trccbc ,' variables at step ', kt
>         CALL fld_read(kt,1,sf_trccbc)
>       ENDIF   
507,510d295
<      !IF(lwp) THEN
<      !    WRITE(numout,*) 'LuoXIAOFAN TEST dic BOUNDDARY in trcbc.F90:', sf_trcobc(1)%fnow(:,1,:)
<      !ENDIF
<       !WRITE(numout,*) "In trc_bc_read at A: nstop=", nstop
526,532d310
< 
<       
<     
<   
< 
< 
< 
534d311
< 
Only in /home/amh001/NAA_NEMO/NEMO/TOP_SRC/: trcbdy.F90
diff /home/amh001/NAA_NEMO/NEMO/TOP_SRC/trcdta.F90 /home/amh001/work/LATESTNEMO/NEMOGCM/NEMO/TOP_SRC/trcdta.F90
42c42
<    !! $Id: trcdta.F90 5385 2015-06-09 13:50:42Z cetlod $ 
---
>    !! $Id: trcdta.F90 8543 2017-09-19 10:27:07Z cetlod $ 
79c79
<          CALL ctl_stop( 'trc_nam: unable to allocate n_trc_index' )   ;   RETURN
---
>          CALL ctl_stop( 'trc_dta_init: unable to allocate n_trc_index' )   ;   RETURN
92a93,94
>          WRITE(numout,*) 'trc_dta_init : Passive tracers Initial Conditions '
>          WRITE(numout,*) '~~~~~~~~~~~~~~ '
109,110c111,116
<                clndta = TRIM( sn_trcdta(jn)%clvar ) 
<                clntrc = TRIM( ctrcnm   (jn)       ) 
---
>                clndta = TRIM( sn_trcdta(jn)%clvar )
>                if (jn > jptra) then
>                   clntrc='Dummy' ! By pass weird formats in ocean.output if ntrc > jptra
>                else
>                   clntrc = TRIM( ctrcnm   (jn)       )
>                endif
112,115c118,121
<                IF( clndta /=  clntrc ) THEN 
<                   CALL ctl_warn( 'trc_dta_init: passive tracer data initialisation :  ',   &
<                   &              'the variable name in the data file : '//clndta//   & 
<                   &              '  must be the same than the name of the passive tracer : '//clntrc//' ')
---
>                IF( clndta /=  clntrc ) THEN
>                   CALL ctl_warn( 'trc_dta_init: passive tracer data initialisation    ',   &
>                   &              'Input name of data file : '//TRIM(clndta)//   &
>                   &              ' differs from that of tracer : '//TRIM(clntrc)//' ')
117,118c123,124
<                WRITE(numout,*) ' read an initial file for passive tracer number :', jn, ' name : ', clndta, & 
<                &               ' multiplicative factor : ', zfact
---
>                WRITE(numout,'(a, i4,3a,e11.3)') ' Read IC file for tracer number :', &
>                &            jn, ', name : ', TRIM(clndta), ', Multiplicative Scaling factor : ', zfact
126c132
<             CALL ctl_stop( 'trc_dta_ini: unable to allocate  sf_trcdta structure' )   ;   RETURN
---
>             CALL ctl_stop( 'trc_dta_init: unable to allocate  sf_trcdta structure' )   ;   RETURN
137c143
<                  CALL ctl_stop( 'trc_dta : unable to allocate passive tracer data arrays' )   ;   RETURN
---
>                  CALL ctl_stop( 'trc_dta_init : unable to allocate passive tracer data arrays' )   ;   RETURN
143c149
<          CALL fld_fill( sf_trcdta, slf_i, cn_dir, 'trc_dta', 'Passive tracer data', 'namtrc' )
---
>          CALL fld_fill( sf_trcdta, slf_i, cn_dir, 'trc_dta_init', 'Passive tracer data', 'namtrc' )
153c159
<    SUBROUTINE trc_dta( kt, sf_dta, zrf_trfac )
---
>    SUBROUTINE trc_dta( kt, sf_dta, ptrfac, ptrc)
166,167c172,174
<       TYPE(FLD), DIMENSION(1)   , INTENT(inout) ::   sf_dta     ! array of information on the field to read
<       REAL(wp)                  , INTENT(in   ) ::   zrf_trfac  ! multiplication factor
---
>       TYPE(FLD), DIMENSION(1)     , INTENT(inout) ::   sf_dta     ! array of information on the field to read
>       REAL(wp)                    , INTENT(in   ) ::   ptrfac  ! multiplication factor
>       REAL(wp), DIMENSION(jpi,jpj,jpk), OPTIONAL  , INTENT(out  ) ::   ptrc
171a179
>       REAL(wp), POINTER, DIMENSION(:,:,:) ::  ztrcdta   ! 3D  workspace
178a187,188
>          CALL wrk_alloc( jpi, jpj, jpk, ztrcdta )    ! Memory allocation
>          !
179a190
>          ztrcdta(:,:,:) = sf_dta(1)%fnow(:,:,:) * tmask(:,:,:)    ! Mask
188,209c199,215
<                DO jj = 1, jpj                         ! vertical interpolation of T & S
<                   DO ji = 1, jpi
<                      DO jk = 1, jpk                        ! determines the intepolated T-S profiles at each (i,j) points
<                         zl = fsdept_n(ji,jj,jk)
<                         IF(     zl < gdept_1d(1  ) ) THEN         ! above the first level of data