/home/amh001/NEMO_NAA/NEMO/TOP_SRC/PISCES/P4Z/p4zbio.F90