/home/amh001/NAA_NEMO/NEMO/LIM_SRC_3/limwri_dimg.h90