/home/amh001/NAA_NEMO/NEMO/OPA_SRC/OBS/obs_level_search.h90