/home/amh001/NAA_NEMO/NEMO/OPA_SRC/LDF/ldfdyn_c3d.h90