/home/amh001/NAA_NEMO/NEMO/OPA_SRC/OBS/obsvel_io.h90