/home/amh001/NAA_NEMO/NEMO/OPA_SRC/SBC/tide.h90