/home/amh001/NAA_NEMO/NEMO/OPA_SRC/OBS/obs_conv_functions.h90